Version 4.1
SHEET 1 1060 680
WIRE 720 -336 32 -336
WIRE 32 -224 32 -336
WIRE 688 -80 656 -80
WIRE 992 -80 768 -80
WIRE 32 0 32 -144
WIRE 32 0 -48 0
WIRE 96 0 32 0
WIRE 400 0 368 0
WIRE 512 0 480 0
WIRE -608 64 -608 -112
WIRE -48 96 -48 80
WIRE -48 96 -208 96
WIRE 96 96 -48 96
WIRE 544 96 368 96
WIRE 656 96 656 -80
WIRE 656 96 544 96
WIRE -96 192 -128 192
WIRE 32 192 -16 192
WIRE 96 192 32 192
WIRE 544 192 544 176
WIRE 544 192 368 192
WIRE -608 224 -608 144
WIRE -208 224 -208 96
WIRE -208 224 -608 224
WIRE 32 272 32 192
WIRE 544 272 32 272
WIRE 96 288 -192 288
WIRE 720 288 720 -336
WIRE 720 288 368 288
FLAG -608 -112 0
FLAG -128 192 0
FLAG -192 288 0
FLAG 512 0 0
FLAG 992 0 0
SYMBOL OpAmps\\LTC6269 240 192 R0
SYMATTR InstName U1
SYMBOL current -608 64 R0
WINDOW 123 0 0 Left 0
WINDOW 39 0 0 Left 0
SYMATTR InstName I1
SYMATTR Value SINE(50p 50p 1)
SYMBOL voltage 384 0 R270
WINDOW 0 32 56 VTop 2
WINDOW 3 -32 56 VBottom 2
WINDOW 123 0 0 Left 0
WINDOW 39 0 0 Left 0
SYMATTR InstName V1
SYMATTR Value 5
SYMBOL res -64 -16 R0
SYMATTR InstName R1
SYMATTR Value 10Meg
SYMBOL res 16 -240 R0
SYMATTR InstName R2
SYMATTR Value 220
SYMBOL res 528 80 R0
SYMATTR InstName R3
SYMATTR Value 400000
SYMBOL res 784 -96 R90
WINDOW 0 0 56 VBottom 2
WINDOW 3 32 56 VTop 2
SYMATTR InstName R4
SYMATTR Value 220
SYMBOL res 976 -96 R0
SYMATTR InstName R5
SYMATTR Value 50G
SYMBOL voltage 0 192 R90
WINDOW 0 -32 56 VBottom 2
WINDOW 3 32 56 VTop 2
WINDOW 123 0 0 Left 0
WINDOW 39 0 0 Left 0
SYMATTR InstName V2
SYMATTR Value 3.3
SYMBOL res 528 176 R0
SYMATTR InstName R6
SYMATTR Value 100
TEXT -640 432 Left 2 !.tran 5\n.options trtol=5\n.options abstol=1n\n.options vntol=1m
