Version 4.1
SHEET 1 880 680
WIRE -768 -624 -1056 -624
WIRE -1056 -432 -1056 -624
WIRE -1056 -432 -1344 -432
WIRE -976 -432 -1056 -432
WIRE -592 -432 -624 -432
WIRE -416 -432 -512 -432
WIRE -1344 -416 -1344 -432
WIRE -976 -384 -976 -432
WIRE -688 -384 -976 -384
WIRE -1344 -336 -1344 -352
WIRE -1056 -336 -1056 -352
WIRE -1056 -336 -1344 -336
WIRE -976 -336 -1056 -336
WIRE -688 -320 -688 -384
WIRE -688 -320 -736 -320
WIRE -976 -304 -976 -336
WIRE -864 -304 -976 -304
WIRE -624 -272 -624 -432
WIRE -624 -272 -736 -272
WIRE 304 -256 144 -256
WIRE 400 -256 384 -256
WIRE -864 -240 -1024 -240
WIRE 400 -240 400 -256
WIRE -656 -224 -736 -224
WIRE -1264 -160 -1408 -160
WIRE -1008 -160 -1184 -160
WIRE -1008 -144 -1008 -160
WIRE -656 -144 -656 -224
WIRE -656 -144 -1008 -144
WIRE 64 -48 64 -256
WIRE 144 -48 64 -48
WIRE 224 -48 144 -48
WIRE 336 -48 224 -48
WIRE 688 -48 608 -48
WIRE 832 -48 768 -48
WIRE -1136 16 -1136 -32
WIRE 144 32 64 32
WIRE 224 32 144 32
WIRE 64 48 64 32
WIRE 336 48 64 48
WIRE 64 64 64 48
WIRE 144 64 64 64
WIRE -1056 96 -1056 -336
WIRE -1056 96 -1136 96
WIRE 144 144 64 144
WIRE 336 144 224 144
WIRE 64 176 64 144
WIRE 224 224 224 144
WIRE 224 224 64 224
WIRE 336 240 256 240
WIRE 64 272 64 224
WIRE 64 400 64 352
FLAG 64 400 0
FLAG 64 176 0
FLAG 256 240 0
FLAG 400 -240 0
FLAG 832 -48 0
FLAG -1136 -32 0
FLAG -1024 -240 0
FLAG -1408 -160 0
FLAG -416 -432 0
SYMBOL OpAmps\\LTC6269 480 144 R0
SYMATTR InstName U2
SYMBOL voltage 64 256 R0
WINDOW 3 -252 51 Left 2
WINDOW 123 0 0 Left 0
WINDOW 39 0 0 Left 0
SYMATTR Value SINE(1.50 1.50 10)
SYMATTR InstName V1
SYMBOL res 48 48 R0
SYMATTR InstName R1
SYMATTR Value 100
SYMBOL res 48 -64 R0
SYMATTR InstName R2
SYMATTR Value 100
SYMBOL res 128 -64 R0
SYMATTR InstName R3
SYMATTR Value 100
SYMBOL res 208 -64 R0
SYMATTR InstName R4
SYMATTR Value 100
SYMBOL res 128 48 R0
SYMATTR InstName R5
SYMATTR Value 100
SYMBOL res 160 -272 R90
WINDOW 0 0 56 VBottom 2
WINDOW 3 32 56 VTop 2
SYMATTR InstName R6
SYMATTR Value 220
SYMBOL res 400 -272 R90
WINDOW 0 0 56 VBottom 2
WINDOW 3 32 56 VTop 2
SYMATTR InstName R7
SYMATTR Value 50G
SYMBOL voltage 672 -48 R270
WINDOW 0 32 56 VTop 2
WINDOW 3 -32 56 VBottom 2
WINDOW 123 0 0 Left 0
WINDOW 39 0 0 Left 0
SYMATTR InstName V2
SYMATTR Value 5
SYMBOL current -1136 16 R0
WINDOW 123 0 0 Left 0
WINDOW 39 0 0 Left 0
SYMATTR InstName I1
SYMATTR Value PULSE(0.01 0.00999984741211 0 4e-07 4e-07 0.000004 0.000008 25000)
SYMBOL voltage -608 -432 R270
WINDOW 0 32 56 VTop 2
WINDOW 3 -32 56 VBottom 2
WINDOW 123 0 0 Left 0
WINDOW 39 0 0 Left 0
SYMATTR InstName V3
SYMATTR Value 15
SYMBOL voltage -1280 -160 R270
WINDOW 0 32 56 VTop 2
WINDOW 3 -32 56 VBottom 2
WINDOW 123 0 0 Left 0
WINDOW 39 0 0 Left 0
SYMATTR InstName V4
SYMATTR Value 15
SYMBOL res -1072 -448 R0
SYMATTR InstName R10
SYMATTR Value 1500
SYMBOL Custom_SPICE_Models\\OPA277\\OPAx277 -800 -288 R0
SYMATTR InstName U1
SYMBOL cap -1360 -416 R0
SYMATTR InstName C1
SYMATTR Value 20p
TEXT -184 424 Left 2 !.tran 10
TEXT -1064 -384 Right 0 ;DAC internal resistor (ignore value)
